data11.m
linedata=[1 1 2 .00250 .0188 .640/2 1;
    2 1 10 .00500 .0375 1.28/2 1;
    3 2 3  .00125 .0125 0.258/2 1;
    4 2 11 .00625 .0625 1.600/2 1;
    5 3 4  .00375 .0312 0.640/2 1;
    6 3 6  .00438 .0375 1.280/2 1;
    7 4 5  .00312 .0312 0.960/2 1;
    8 4 6  .00312 .0312 0.960/2 1;
    9 4 11 .00188 .0123 0.320/2 1;
    10 5 7 .00625 .0625 1.600/2 1;
    11 6 7 .00625 .0625 1.600/2 1;
    12 7 8 .00125 .0125 0.256/2 1;
    13 8 9 .00188 .0188 0.480/2 1;
    14 9 10 .00125 .0125 .320/2 1;
    15 10 11 .00312 .0312 .960/2 1];


busdata=[1 1 1.05 0 0 0 0 0 0 0;
    2 2 1 0 0 -.10 -.10 0 0 0;
    3 2 1 0 0 -.15 -.05 0 0 0;
    4 2 1 0 0 -.20 -.05 0 0 0;
    5 3 1.05 0 0 .20 0 -10 10 0;
    6 2 1 0 0 0 0 0 0 0;
    7 2 1 0 0 -.12 -.10 0 0 0;
    8 2 1 0 0 -.05 -.15 0 0 0;
    9 3 1.0375 0 0 .5 0 -10 10 0;
    10 2 1 0 0 -.20 -.10 0 0 0;
    11 2 1 0 0 .08 .06 0 0 0];

busdata1=[1 1 1.05 0 0 0 0 0 0 0;
    2 2 1 0 0 -9 -2 0 0 0;
    3 2 1 0 0 -16.5095 -1 0 0 0;
    4 2 1 0 0 -25 -2 0 0 0;
    5 3 1.050146 0 0 10 0 -10 10 0;
    6 2 1 0 0 0 0 0 0 0;
    7 2 1 0 0 -12 -.8 0 0 0;
    8 2 1 0 0 -4 -.5 0 0 0;
    9 3 1.037502 0 0 25 0 -10 10 0;
    10 2 1 0 0 -8 -2 0 0 0;
    11 2 1 0 0 9 6.3 0 0 0];

busdata2=[1 1 1.05 0 0 0 0 0 0 0;
    2 2 1 0 0 -9 -2*.96 0 0 0;
    3 2 1 0 0 -16.5095 -1*.96 0 0 0;
    4 2 1 0 0 -25 -2*.96 0 0 0;
    5 3 1.05 0 0 10 0 -10 10 0;
    6 2 1 0 0 0 0 0 0 0;
    7 2 1 0 0 -12 -.8*.96 0 0 0;
    8 2 1 0 0 -4 -.5*.96 0 0 0;
    9 3 1.0375 0 0 25 0 -10 10 0;
    10 2 1 0 0 -8 -2*.96 0 0 0;
    11 2 1 0 0 9 6.3*.96 0 0 0];

